data_B2N2C8H6
_chemical_formula_structural       B2N2C8H6
_chemical_formula_sum              "B2 N2 C8 H6"
_cell_length_a   7.000
_cell_length_b   7.000
_cell_length_c   15.000
_cell_angle_alpha 90
_cell_angle_beta  90
_cell_angle_gamma 90

_space_group_name_H-M_alt    "P 1"
_space_group_IT_number       1

loop_
  _space_group_symop_operation_xyz
  'x, y, z'

loop_
  _atom_site_type_symbol
  _atom_site_label
  _atom_site_symmetry_multiplicity
  _atom_site_fract_x
  _atom_site_fract_y
  _atom_site_fract_z
  _atom_site_occupancy
  B   B1        1.0  0.000  0.286  0.50  1.0000
  N   N1        1.0  0.143  0.500  0.50  1.0000
  C   C1        1.0  0.357  0.643  0.50  1.0000
  C   C2        1.0  0.643  0.643  0.50  1.0000
  C   C3        1.0  0.857  0.500  0.50  1.0000
  B   B2        1.0  0.714  0.286  0.50  1.0000
  N   N2        1.0  0.500  0.071  0.50  1.0000
  C   C4        1.0  0.357  0.071  0.50  1.0000
  C   C5        1.0  0.143  0.214  0.50  1.0000
  C   C6        1.0  0.286  0.357  0.50  1.0000
  C   C7        1.0  0.500  0.429  0.50  1.0000
  C   C8        1.0  0.714  0.500  0.50  1.0000
  H   H1        1.0  0.000  0.286  0.43  1.0000
  H   H2        1.0  0.143  0.500  0.43  1.0000
  H   H3        1.0  0.357  0.643  0.43  1.0000
  H   H4        1.0  0.643  0.643  0.43  1.0000
  H   H5        1.0  0.857  0.500  0.43  1.0000
  H   H6        1.0  0.714  0.286  0.43  1.0000
